V1 Va 0 PULSE(0 1.2 .5n 1p 1p 1n 2n)
V2 Vb 0 PULSE(0 1.2 .5n 1p 1p .5n 1n)
V3 Vdd 0 1.2
.tran 4n
.backanno
